converted env to array
t_command:
  Arg 0: ls
  Input file: (null)
  Output file: out.txt
  exec path: /bin/ls
Makefile
includes
lib
libft
minishell
minishell.dSYM
out.txt
src
test.txt
valgrind.supp
